# DRN package for  MODFLOW-NWT, generated by Flopy.
       929         0
       929         0 # stress period 1
         1        12        81          4478.0           0.001
         1        12        82          4476.0           0.001
         1        13        81          4482.0           0.001
         1        13        83          4474.0           0.001
         1        14        80          4482.0           0.001
         1        14        83          4482.0           0.001
         1        14        84          4487.0           0.001
         1        15        79          4484.0           0.001
         1        15        80          4488.0           0.001
         1        15        85          4512.0           0.001
         1        15        86          4547.0           0.001
         1        15        87          4556.0           0.001
         1        16        79          4489.0           0.001
         1        17        78          4478.0           0.001
         1        18        78          4469.0           0.001
         1        18        79          4478.0           0.001
         1        19        78          4480.0           0.001
         1        19        79          4474.0           0.001
         1        20        78          4481.0           0.001
         1        21        78          4466.0           0.001
         1        22        78          4467.0           0.001
         1        23        78          4470.0           0.001
         1        24        78          4460.0           0.001
         1        25        78          4456.0           0.001
         1        25        79          4459.0           0.001
         1        25        82          4463.0           0.001
         1        25        83          4478.0           0.001
         1        25        84          4492.0           0.001
         1        25        99          4506.0           0.001
         1        25       100          4534.0           0.001
         1        25       101          4546.0           0.001
         1        25       104          4557.0           0.001
         1        26        79          4459.0           0.001
         1        26        80          4462.0           0.001
         1        26        81          4464.0           0.001
         1        26        82          4468.0           0.001
         1        26        83          4470.0           0.001
         1        26        97          4501.0           0.001
         1        26        98          4502.0           0.001
         1        26        99          4520.0           0.001
         1        26       101          4532.0           0.001
         1        26       102          4547.0           0.001
         1        26       104          4558.0           0.001
         1        27        78          4458.0           0.001
         1        27        79          4468.0           0.001
         1        27        80          4466.0           0.001
         1        27        81          4477.0           0.001
         1        27        82          4463.0           0.001
         1        27        83          4465.0           0.001
         1        27        84          4481.0           0.001
         1        27        97          4507.0           0.001
         1        27       103          4548.0           0.001
         1        27       104          4575.0           0.001
         1        28        77          4457.0           0.001
         1        28        78          4485.0           0.001
         1        28        84          4481.0           0.001
         1        28        85          4482.0           0.001
         1        28        86          4491.0           0.001
         1        28        87          4491.0           0.001
         1        28        88          4487.0           0.001
         1        28        90          4490.0           0.001
         1        28        91          4489.0           0.001
         1        28        92          4494.0           0.001
         1        28        93          4494.0           0.001
         1        28        94          4495.0           0.001
         1        28        95          4496.0           0.001
         1        28        96          4523.0           0.001
         1        28        97          4573.0           0.001
         1        29        68          4461.0           0.001
         1        29        76          4462.0           0.001
         1        29        77          4484.0           0.001
         1        29        88          4489.0           0.001
         1        29        89          4493.0           0.001
         1        29        91          4494.0           0.001
         1        29        92          4489.0           0.001
         1        29        95          4499.0           0.001
         1        30        68          4458.0           0.001
         1        30        74          4433.0           0.001
         1        30        75          4448.0           0.001
         1        30        89          4499.0           0.001
         1        30        90          4496.0           0.001
         1        30        91          4500.0           0.001
         1        31        67          4424.0           0.001
         1        31        73          4432.0           0.001
         1        31        74          4441.0           0.001
         1        31        89          4527.0           0.001
         1        32        68          4438.0           0.001
         1        32        73          4452.0           0.001
         1        32        89          4558.0           0.001
         1        33        68          4416.0           0.001
         1        33        72          4418.0           0.001
         1        33        89          4576.0           0.001
         1        34        67          4402.0           0.001
         1        34        72          4409.0           0.001
         1        34        89          4582.0           0.001
         1        35        56          4228.0           0.001
         1        35        67          4398.0           0.001
         1        35        68          4411.0           0.001
         1        35        72          4397.0           0.001
         1        35        73          4423.0           0.001
         1        36        56          4234.0           0.001
         1        36        67          4400.0           0.001
         1        36        72          4395.0           0.001
         1        37        55          4200.0           0.001
         1        37        67          4388.0           0.001
         1        37        71          4388.0           0.001
         1        37        72          4383.0           0.001
         1        38        54          4178.0           0.001
         1        38        55          4195.0           0.001
         1        38        67          4387.0           0.001
         1        38        68          4374.0           0.001
         1        38        69          4357.0           0.001
         1        38        70          4372.0           0.001
         1        38        71          4381.0           0.001
         1        39        54          4182.0           0.001
         1        39        55          4196.0           0.001
         1        39        56          4210.0           0.001
         1        39        57          4295.0           0.001
         1        39        58          4306.0           0.001
         1        39        59          4318.0           0.001
         1        39        60          4321.0           0.001
         1        39        68          4362.0           0.001
         1        39        69          4354.0           0.001
         1        40        53          4161.0           0.001
         1        40        54          4187.0           0.001
         1        40        59          4320.0           0.001
         1        40        68          4347.0           0.001
         1        41        52          4157.0           0.001
         1        41        53          4185.0           0.001
         1        41        68          4343.0           0.001
         1        42        51          4140.0           0.001
         1        42        52          4169.0           0.001
         1        42        67          4341.0           0.001
         1        42        68          4358.0           0.001
         1        43        51          4149.0           0.001
         1        43        66          4330.0           0.001
         1        44        51          4133.0           0.001
         1        44        56          4171.0           0.001
         1        44        57          4164.0           0.001
         1        44        58          4235.0           0.001
         1        44        63          4285.0           0.001
         1        44        64          4328.0           0.001
         1        44        65          4340.0           0.001
         1        44        66          4370.0           0.001
         1        45        34          4316.0           0.001
         1        45        51          4071.0           0.001
         1        45        52          4097.0           0.001
         1        45        53          4148.0           0.001
         1        45        54          4164.0           0.001
         1        45        55          4210.0           0.001
         1        45        58          4214.0           0.001
         1        45        59          4251.0           0.001
         1        45        60          4248.0           0.001
         1        45        61          4253.0           0.001
         1        45        62          4318.0           0.001
         1        46        33          4285.0           0.001
         1        46        34          4309.0           0.001
         1        46        51          4072.0           0.001
         1        47        32          4252.0           0.001
         1        47        33          4297.0           0.001
         1        47        35          4282.0           0.001
         1        47        51          4067.0           0.001
         1        48        32          4238.0           0.001
         1        48        35          4250.0           0.001
         1        48        51          4070.0           0.001
         1        49        32          4223.0           0.001
         1        49        35          4243.0           0.001
         1        49        49          4037.0           0.001
         1        49        50          4059.0           0.001
         1        49        51          4130.0           0.001
         1        50        32          4202.0           0.001
         1        50        33          4249.0           0.001
         1        50        36          4200.0           0.001
         1        50        40          4245.0           0.001
         1        50        49          4040.0           0.001
         1        51        32          4199.0           0.001
         1        51        33          4239.0           0.001
         1        51        36          4169.0           0.001
         1        51        40          4214.0           0.001
         1        51        48          4021.0           0.001
         1        51        49          4068.0           0.001
         1        52        32          4188.0           0.001
         1        52        33          4216.0           0.001
         1        52        37          4189.0           0.001
         1        52        39          4181.0           0.001
         1        52        48          4023.0           0.001
         1        53        24          4259.0           0.001
         1        53        25          4246.0           0.001
         1        53        26          4231.0           0.001
         1        53        27          4212.0           0.001
         1        53        28          4177.0           0.001
         1        53        32          4189.0           0.001
         1        53        37          4135.0           0.001
         1        53        39          4161.0           0.001
         1        53        48          4026.0           0.001
         1        54        23          4298.0           0.001
         1        54        24          4268.0           0.001
         1        54        29          4143.0           0.001
         1        54        30          4108.0           0.001
         1        54        31          4152.0           0.001
         1        54        38          4118.0           0.001
         1        54        39          4133.0           0.001
         1        54        48          4049.0           0.001
         1        55        31          4066.0           0.001
         1        55        38          4118.0           0.001
         1        55        39          4099.0           0.001
         1        55        47          4009.0           0.001
         1        55        48          4092.0           0.001
         1        56        26          4208.0           0.001
         1        56        27          4193.0           0.001
         1        56        32          4026.0           0.001
         1        56        40          4097.0           0.001
         1        56        47          4011.0           0.001
         1        57        19          4267.0           0.001
         1        57        27          4142.0           0.001
         1        57        28          4144.0           0.001
         1        57        32          4029.0           0.001
         1        57        39          4070.0           0.001
         1        57        40          4089.0           0.001
         1        57        47          4026.0           0.001
         1        58        20          4209.0           0.001
         1        58        21          4166.0           0.001
         1        58        22          4174.0           0.001
         1        58        28          4099.0           0.001
         1        58        32          3995.0           0.001
         1        58        38          4034.0           0.001
         1        58        39          4047.0           0.001
         1        58        46          4012.0           0.001
         1        58        47          4080.0           0.001
         1        59        22          4127.0           0.001
         1        59        28          4075.0           0.001
         1        59        32          3967.0           0.001
         1        59        38          4019.0           0.001
         1        59        39          4026.0           0.001
         1        59        44          4000.0           0.001
         1        59        45          4014.0           0.001
         1        60        22          4099.0           0.001
         1        60        27          4057.0           0.001
         1        60        32          3946.0           0.001
         1        60        33          3962.0           0.001
         1        60        38          3975.0           0.001
         1        60        39          3985.0           0.001
         1        60        43          3978.0           0.001
         1        60        44          4006.0           0.001
         1        60        46          4068.0           0.001
         1        60        47          4080.0           0.001
         1        61        22          4085.0           0.001
         1        61        27          4004.0           0.001
         1        61        32          3949.0           0.001
         1        61        33          3924.0           0.001
         1        61        36          3929.0           0.001
         1        61        37          3955.0           0.001
         1        61        38          3979.0           0.001
         1        61        39          3989.0           0.001
         1        61        40          3975.0           0.001
         1        61        41          3978.0           0.001
         1        61        42          4007.0           0.001
         1        61        43          4013.0           0.001
         1        61        47          4115.0           0.001
         1        61        48          4090.0           0.001
         1        61        49          4099.0           0.001
         1        61        50          4097.0           0.001
         1        61        51          4118.0           0.001
         1        61        52          4131.0           0.001
         1        61        53          4173.0           0.001
         1        61        54          4192.0           0.001
         1        61        55          4193.0           0.001
         1        61        56          4200.0           0.001
         1        61        57          4195.0           0.001
         1        61        58          4206.0           0.001
         1        61        59          4223.0           0.001
         1        61        60          4226.0           0.001
         1        62        23          4054.0           0.001
         1        62        27          3990.0           0.001
         1        62        31          3901.0           0.001
         1        62        32          3896.0           0.001
         1        62        33          3900.0           0.001
         1        62        34          3919.0           0.001
         1        62        35          3927.0           0.001
         1        62        36          3941.0           0.001
         1        62        37          3943.0           0.001
         1        62        38          3998.0           0.001
         1        62        51          4152.0           0.001
         1        62        61          4264.0           0.001
         1        62        62          4277.0           0.001
         1        63        24          3974.0           0.001
         1        63        25          3978.0           0.001
         1        63        26          3983.0           0.001
         1        63        27          3981.0           0.001
         1        63        30          3896.0           0.001
         1        63        31          3911.0           0.001
         1        63        38          4020.0           0.001
         1        63        39          4000.0           0.001
         1        63        40          4028.0           0.001
         1        63        51          4152.0           0.001
         1        63        63          4292.0           0.001
         1        63        64          4290.0           0.001
         1        64        16          4242.0           0.001
         1        64        17          4211.0           0.001
         1        64        25          3932.0           0.001
         1        64        26          3941.0           0.001
         1        64        27          3920.0           0.001
         1        64        28          3880.0           0.001
         1        64        29          3906.0           0.001
         1        64        41          4054.0           0.001
         1        64        52          4175.0           0.001
         1        64        64          4293.0           0.001
         1        64        65          4309.0           0.001
         1        65        18          4146.0           0.001
         1        65        25          3928.0           0.001
         1        65        26          3890.0           0.001
         1        65        27          3889.0           0.001
         1        65        28          3862.0           0.001
         1        65        41          4046.0           0.001
         1        65        52          4194.0           0.001
         1        65        53          4218.0           0.001
         1        65        65          4311.0           0.001
         1        66        18          4118.0           0.001
         1        66        26          3834.0           0.001
         1        66        27          3838.0           0.001
         1        66        28          3855.0           0.001
         1        66        29          3866.0           0.001
         1        66        41          4080.0           0.001
         1        66        42          4085.0           0.001
         1        66        53          4209.0           0.001
         1        67        19          4059.0           0.001
         1        67        26          3837.0           0.001
         1        67        29          3915.0           0.001
         1        67        30          3917.0           0.001
         1        67        42          4093.0           0.001
         1        67        53          4237.0           0.001
         1        68        19          4058.0           0.001
         1        68        20          4001.0           0.001
         1        68        26          3827.0           0.001
         1        68        30          3933.0           0.001
         1        68        31          3947.0           0.001
         1        68        42          4137.0           0.001
         1        68        54          4248.0           0.001
         1        69        21          3959.0           0.001
         1        69        22          3932.0           0.001
         1        69        26          3837.0           0.001
         1        69        31          3994.0           0.001
         1        69        32          3985.0           0.001
         1        69        42          4181.0           0.001
         1        69        55          4294.0           0.001
         1        70        14          4257.0           0.001
         1        70        22          3957.0           0.001
         1        70        23          3894.0           0.001
         1        70        24          3831.0           0.001
         1        70        25          3810.0           0.001
         1        70        26          3812.0           0.001
         1        70        31          4016.0           0.001
         1        70        32          4034.0           0.001
         1        70        33          4022.0           0.001
         1        70        41          4210.0           0.001
         1        70        42          4225.0           0.001
         1        70        55          4274.0           0.001
         1        71        15          4203.0           0.001
         1        71        25          3797.0           0.001
         1        71        26          3810.0           0.001
         1        71        31          4033.0           0.001
         1        71        41          4234.0           0.001
         1        71        42          4272.0           0.001
         1        71        56          4297.0           0.001
         1        72        15          4166.0           0.001
         1        72        18          4118.0           0.001
         1        72        19          4044.0           0.001
         1        72        20          4003.0           0.001
         1        72        21          3963.0           0.001
         1        72        22          3918.0           0.001
         1        72        23          3887.0           0.001
         1        72        24          3845.0           0.001
         1        72        25          3796.0           0.001
         1        72        26          3801.0           0.001
         1        72        31          4023.0           0.001
         1        72        32          4050.0           0.001
         1        72        33          4065.0           0.001
         1        72        34          4061.0           0.001
         1        72        42          4267.0           0.001
         1        72        51          4336.0           0.001
         1        72        57          4312.0           0.001
         1        72        58          4321.0           0.001
         1        72        59          4348.0           0.001
         1        72        60          4343.0           0.001
         1        72        61          4355.0           0.001
         1        72        62          4374.0           0.001
         1        73        15          4099.0           0.001
         1        73        26          3813.0           0.001
         1        73        32          4075.0           0.001
         1        73        35          4090.0           0.001
         1        73        51          4302.0           0.001
         1        73        52          4286.0           0.001
         1        74         9          4174.0           0.001
         1        74        15          4075.0           0.001
         1        74        25          3771.0           0.001
         1        74        26          3820.0           0.001
         1        74        35          4083.0           0.001
         1        74        52          4279.0           0.001
         1        74        53          4241.0           0.001
         1        74        57          4282.0           0.001
         1        75         9          4139.0           0.001
         1        75        10          4182.0           0.001
         1        75        16          4009.0           0.001
         1        75        25          3770.0           0.001
         1        75        26          3828.0           0.001
         1        75        27          3861.0           0.001
         1        75        28          3922.0           0.001
         1        75        35          4096.0           0.001
         1        75        53          4183.0           0.001
         1        75        56          4231.0           0.001
         1        75        57          4257.0           0.001
         1        76        10          4102.0           0.001
         1        76        17          3960.0           0.001
         1        76        25          3781.0           0.001
         1        76        28          3958.0           0.001
         1        76        29          3968.0           0.001
         1        76        35          4107.0           0.001
         1        76        43          4151.0           0.001
         1        76        54          4167.0           0.001
         1        76        55          4219.0           0.001
         1        77        10          4055.0           0.001
         1        77        17          3977.0           0.001
         1        77        18          3922.0           0.001
         1        77        24          3754.0           0.001
         1        77        25          3811.0           0.001
         1        77        29          4016.0           0.001
         1        77        30          4052.0           0.001
         1        77        43          4100.0           0.001
         1        77        54          4176.0           0.001
         1        78        11          4002.0           0.001
         1        78        18          3975.0           0.001
         1        78        19          3887.0           0.001
         1        78        24          3746.0           0.001
         1        78        39          4136.0           0.001
         1        78        44          4072.0           0.001
         1        78        53          4110.0           0.001
         1        78        54          4209.0           0.001
         1        79        12          3977.0           0.001
         1        79        20          3841.0           0.001
         1        79        24          3768.0           0.001
         1        79        39          4122.0           0.001
         1        79        44          4058.0           0.001
         1        79        52          4077.0           0.001
         1        79        53          4120.0           0.001
         1        79        77          4341.0           0.001
         1        80        12          3977.0           0.001
         1        80        13          3963.0           0.001
         1        80        21          3800.0           0.001
         1        80        24          3758.0           0.001
         1        80        37          4076.0           0.001
         1        80        38          4110.0           0.001
         1        80        45          4043.0           0.001
         1        80        52          4073.0           0.001
         1        80        77          4333.0           0.001
         1        81        11          3982.0           0.001
         1        81        12          3970.0           0.001
         1        81        13          3931.0           0.001
         1        81        22          3794.0           0.001
         1        81        23          3739.0           0.001
         1        81        24          3742.0           0.001
         1        81        35          4026.0           0.001
         1        81        36          4053.0           0.001
         1        81        37          4086.0           0.001
         1        81        45          4013.0           0.001
         1        81        52          4055.0           0.001
         1        81        77          4340.0           0.001
         1        82         6          4199.0           0.001
         1        82         7          4143.0           0.001
         1        82         8          4104.0           0.001
         1        82         9          4051.0           0.001
         1        82        10          4060.0           0.001
         1        82        11          4015.0           0.001
         1        82        14          3983.0           0.001
         1        82        15          3950.0           0.001