# RCH package for  MODFLOW-NWT, generated by Flopy.
         3         0
         1        -1 # Stress period 1
INTERNAL               1 (108E15.6) -1 #rech_1                        
   3.805175E-09   3.805175E-09   3.805175E-09   3.805175E-09   3.805175E-09   3.805175E-09   3.805175E-09   3.805175E-09   3.805175E-09   3.805175E-09   3.805175E-09   3.805175E-09   3.805175E-09   3.805175E-09   3.805175E-09   3.805175E-09   3.805175E-09   3.805175E-09   3.805175E-09   3.805175E-09   3.805175E-09   3.805175E-09   3.805175E-09   3.805175E-09   3.805175E-09   3.805175E-09   3.805175E-09   3.805175E-09   3.805175E-09   3.805175E-09   3.805175E-09   3.805175E-09   3.805175E-09   3.805175E-09   3.805175E-09   3.805175E-09   3.805175E-09   3.805175E-09   3.805175E-09   3.805175E-09   3.805175E-09   3.805175E-09   3.805175E-09   3.805175E-09   3.805175E-09   3.805175E-09   3.805175E-09   3.805175E-09   3.805175E-09   3.805175E-09   3.805175E-09   3.805175E-09   3.805175E-09   3.805175E-09   3.805175E-09   3.805175E-09   3.805175E-09   3.805175E-09   3.805175E-09   3.805175E-09   3.805175E-09   3.805175E-09   3.805175E-09   3.805175E-09   3.805175E-09   3.805175E-09   3.805175E-09   3.805175E-09   3.805175E-09   3.805175E-09   3.805175E-09   3.805175E-09   3.805175E-09   3.805175E-09   3.805175E-09   3.805175E-09   3.805175E-09   3.805175E-09   3.805175E-09   3.805175E-09   3.805175E-09   3.805175E-09   3.805175E-09   3.805175E-09   3.805175E-09   3.805175E-09   3.805175E-09   3.805175E-09   3.805175E-09   3.805175E-09   3.805175E-09   3.805175E-09   3.805175E-09   3.805175E-09   3.805175E-09   3.805175E-09   3.805175E-09   3.805175E-09   3.805175E-09   3.805175E-09   3.805175E-09   3.805175E-09   3.805175E-09   3.805175E-09   3.805175E-09   3.805175E-09   3.805175E-09   3.805175E-09
   3.805175E-09   3.805175E-09   3.805175E-09   3.805175E-09   3.805175E-09   3.805175E-09   3.805175E-09   3.805175E-09   3.805175E-09   3.805175E-09   3.805175E-09   3.805175E-09   3.805175E-09   3.805175E-09   3.805175E-09   3.805175E-09   3.805175E-09   3.805175E-09   3.805175E-09   3.805175E-09   3.805175E-09   3.805175E-09   3.805175E-09   3.805175E-09   3.805175E-09   3.805175E-09   3.805175E-09   3.805175E-09   3.805175E-09   3.805175E-09   3.805175E-09   3.805175E-09   3.805175E-09   3.805175E-09   3.805175E-09   3.805175E-09   3.805175E-09   3.805175E-09   3.805175E-09   3.805175E-09   3.805175E-09   3.805175E-09   3.805175E-09   3.805175E-09   3.805175E-09   3.805175E-09   3.805175E-09   3.805175E-09   3.805175E-09   3.805175E-09   3.805175E-09   3.805175E-09   3.805175E-09   3.805175E-09   3.805175E-09   3.805175E-09   3.805175E-09   3.805175E-09   3.805175E-09   3.805175E-09   3.805175E-09   3.805175E-09   3.805175E-09   3.805175E-09   3.805175E-09   3.805175E-09   3.805175E-09   3.805175E-09   3.805175E-09   3.805175E-09   3.805175E-09   3.805175E-09   3.805175E-09   3.805175E-09   3.805175E-09   3.805175E-09   3.805175E-09   3.805175E-09   3.805175E-09   3.805175E-09   3.805175E-09   3.805175E-09   3.805175E-09   3.805175E-09   3.805175E-09   3.805175E-09   3.805175E-09   3.805175E-09   3.805175E-09   3.805175E-09   3.805175E-09   3.805175E-09   3.805175E-09   3.805175E-09   3.805175E-09   3.805175E-09   3.805175E-09   3.805175E-09   3.805175E-09   3.805175E-09   3.805175E-09   3.805175E-09   3.805175E-09   3.805175E-09   3.805175E-09   3.805175E-09   3.805175E-09   3.805175E-09
   3.805175E-09   3.805175E-09   3.805175E-09   3.805175E-09   3.805175E-09   3.805175E-09   3.805175E-09   3.805175E-09   3.805175E-09   3.805175E-09   3.805175E-09   3.805175E-09   3.805175E-09   3.805175E-09   3.805175E-09   3.805175E-09   3.805175E-09   3.805175E-09   3.805175E-09   3.805175E-09   3.805175E-09   3.805175E-09   3.805175E-09   3.805175E-09   3.805175E-09   3.805175E-09   3.805175E-09   3.805175E-09   3.805175E-09   3.805175E-09   3.805175E-09   3.805175E-09   3.805175E-09   3.805175E-09   3.805175E-09   3.805175E-09   3.805175E-09   3.805175E-09   3.805175E-09   3.805175E-09   3.805175E-09   3.805175E-09   3.805175E-09   3.805175E-09   3.805175E-09   3.805175E-09   3.805175E-09   3.805175E-09   3.805175E-09   3.805175E-09   3.805175E-09   3.805175E-09   3.805175E-09   3.805175E-09   3.805175E-09   3.805175E-09   3.805175E-09   3.805175E-09   3.805175E-09   3.805175E-09   3.805175E-09   3.805175E-09   3.805175E-09   3.805175E-09   3.805175E-09   3.805175E-09   3.805175E-09   3.805175E-09   3.805175E-09   3.805175E-09   3.805175E-09   3.805175E-09   3.805175E-09   3.805175E-09   3.805175E-09   3.805175E-09   3.805175E-09   3.805175E-09   3.805175E-09   3.805175E-09   3.805175E-09   3.805175E-09   3.805175E-09   3.805175E-09   3.805175E-09   3.805175E-09   3.805175E-09   3.805175E-09   3.805175E-09   3.805175E-09   3.805175E-09   3.805175E-09   3.805175E-09   3.805175E-09   3.805175E-09   3.805175E-09   3.805175E-09   3.805175E-09   3.805175E-09   3.805175E-09   3.805175E-09   3.805175E-09   3.805175E-09   3.805175E-09   3.805175E-09   3.805175E-09   3.805175E-09   3.805175E-09
   3.805175E-09   3.805175E-09   3.805175E-09   3.805175E-09   3.805175E-09   3.805175E-09   3.805175E-09   3.805175E-09   3.805175E-09   3.805175E-09   3.805175E-09   3.805175E-09   3.805175E-09   3.805175E-09   3.805175E-09   3.805175E-09   3.805175E-09   3.805175E-09   3.805175E-09   3.805175E-09   3.805175E-09   3.805175E-09   3.805175E-09   3.805175E-09   3.805175E-09   3.805175E-09   3.805175E-09   3.805175E-09   3.805175E-09   3.805175E-09   3.805175E-09   3.805175E-09   3.805175E-09   3.805175E-09   3.805175E-09   3.805175E-09   3.805175E-09   3.805175E-09   3.805175E-09   3.805175E-09   3.805175E-09   3.805175E-09   3.805175E-09   3.805175E-09   3.805175E-09   3.805175E-09   3.805175E-09   3.805175E-09   3.805175E-09   3.805175E-09   3.805175E-09   3.805175E-09   3.805175E-09   3.805175E-09   3.805175E-09   3.805175E-09   3.805175E-09   3.805175E-09   3.805175E-09   3.805175E-09   3.805175E-09   3.805175E-09   3.805175E-09   3.805175E-09   3.805175E-09   3.805175E-09   3.805175E-09   3.805175E-09   3.805175E-09   3.805175E-09   3.805175E-09   3.805175E-09   3.805175E-09   3.805175E-09   3.805175E-09   3.805175E-09   3.805175E-09   3.805175E-09   3.805175E-09   3.805175E-09   3.805175E-09   3.805175E-09   3.805175E-09   3.805175E-09   3.805175E-09   3.805175E-09   3.805175E-09   3.805175E-09   3.805175E-09   3.805175E-09   3.805175E-09   3.805175E-09   3.805175E-09   3.805175E-09   3.805175E-09   3.805175E-09   3.805175E-09   3.805175E-09   3.805175E-09   3.805175E-09   3.805175E-09   3.805175E-09   3.805175E-09   3.805175E-09   3.805175E-09   3.805175E-09   3.805175E-09   3.805175E-09
   3.805175E-09   3.805175E-09   3.805175E-09   3.805175E-09   3.805175E-09   3.805175E-09   3.805175E-09   3.805175E-09   3.805175E-09   3.805175E-09   3.805175E-09   3.805175E-09   3.805175E-09   3.805175E-09   3.805175E-09   3.805175E-09   3.805175E-09   3.805175E-09   3.805175E-09   3.805175E-09   3.805175E-09   3.805175E-09   3.805175E-09   3.805175E-09   3.805175E-09   3.805175E-09   3.805175E-09   3.805175E-09   3.805175E-09   3.805175E-09   3.805175E-09   3.805175E-09   3.805175E-09   3.805175E-09   3.805175E-09   3.805175E-09   3.805175E-09   3.805175E-09   3.805175E-09   3.805175E-09   3.805175E-09   3.805175E-09   3.805175E-09   3.805175E-09   3.805175E-09   3.805175E-09   3.805175E-09   3.805175E-09   3.805175E-09   3.805175E-09   3.805175E-09   3.805175E-09   3.805175E-09   3.805175E-09   3.805175E-09   3.805175E-09   3.805175E-09   3.805175E-09   3.805175E-09   3.805175E-09   3.805175E-09   3.805175E-09   3.805175E-09   3.805175E-09   3.805175E-09   3.805175E-09   3.805175E-09   3.805175E-09   3.805175E-09   3.805175E-09   3.805175E-09   3.805175E-09   3.805175E-09   3.805175E-09   3.805175E-09   3.805175E-09   3.805175E-09   3.805175E-09   3.805175E-09   3.805175E-09   3.805175E-09   3.805175E-09   3.805175E-09   3.805175E-09   3.805175E-09   3.805175E-09   3.805175E-09   3.805175E-09   3.805175E-09   3.805175E-09   3.805175E-09   3.805175E-09   3.805175E-09   3.805175E-09   3.805175E-09   3.805175E-09   3.805175E-09   3.805175E-09   3.805175E-09   3.805175E-09   3.805175E-09   3.805175E-09   3.805175E-09   3.805175E-09   3.805175E-09   3.805175E-09   3.805175E-09   3.805175E-09
   3.805175E-09   3.805175E-09   3.805175E-09   3.805175E-09   3.805175E-09   3.805175E-09   3.805175E-09   3.805175E-09   3.805175E-09   3.805175E-09   3.805175E-09   3.805175E-09   3.805175E-09   3.805175E-09   3.805175E-09   3.805175E-09   3.805175E-09   3.805175E-09   3.805175E-09   3.805175E-09   3.805175E-09   3.805175E-09   3.805175E-09   3.805175E-09   3.805175E-09   3.805175E-09   3.805175E-09   3.805175E-09   3.805175E-09   3.805175E-09   3.805175E-09   3.805175E-09   3.805175E-09   3.805175E-09   3.805175E-09   3.805175E-09   3.805175E-09   3.805175E-09   3.805175E-09   3.805175E-09   3.805175E-09   3.805175E-09   3.805175E-09   3.805175E-09   3.805175E-09   3.805175E-09   3.805175E-09   3.805175E-09   3.805175E-09   3.805175E-09   3.805175E-09   3.805175E-09   3.805175E-09   3.805175E-09   3.805175E-09   3.805175E-09   3.805175E-09   3.805175E-09   3.805175E-09   3.805175E-09   3.805175E-09   3.805175E-09   3.805175E-09   3.805175E-09   3.805175E-09   3.805175E-09   3.805175E-09   3.805175E-09   3.805175E-09   3.805175E-09   3.805175E-09   3.805175E-09   3.805175E-09   3.805175E-09   3.805175E-09   3.805175E-09   3.805175E-09   3.805175E-09   3.805175E-09   3.805175E-09   3.805175E-09   3.805175E-09   3.805175E-09   3.805175E-09   3.805175E-09   3.805175E-09   3.805175E-09   3.805175E-09   3.805175E-09   3.805175E-09   3.805175E-09   3.805175E-09   3.805175E-09   3.805175E-09   3.805175E-09   3.805175E-09   3.805175E-09   3.805175E-09   3.805175E-09   3.805175E-09   3.805175E-09   3.805175E-09   3.805175E-09   3.805175E-09   3.805175E-09   3.805175E-09   3.805175E-09   3.805175E-09
   3.805175E-09   3.805175E-09   3.805175E-09   3.805175E-09   3.805175E-09   3.805175E-09   3.805175E-09   3.805175E-09   3.805175E-09   3.805175E-09   3.805175E-09   3.805175E-09   3.805175E-09   3.805175E-09   3.805175E-09   3.805175E-09   3.805175E-09   3.805175E-09   3.805175E-09   3.805175E-09   3.805175E-09   3.805175E-09   3.805175E-09   3.805175E-09   3.805175E-09   3.805175E-09   3.805175E-09   3.805175E-09   3.805175E-09   3.805175E-09   3.805175E-09   3.805175E-09   3.805175E-09   3.805175E-09   3.805175E-09   3.805175E-09   3.805175E-09   3.805175E-09   3.805175E-09   3.805175E-09   3.805175E-09   3.805175E-09   3.805175E-09   3.805175E-09   3.805175E-09   3.805175E-09   3.805175E-09   3.805175E-09   3.805175E-09   3.805175E-09   3.805175E-09   3.805175E-09   3.805175E-09   3.805175E-09   3.805175E-09   3.805175E-09   3.805175E-09   3.805175E-09   3.805175E-09   3.805175E-09   3.805175E-09   3.805175E-09   3.805175E-09   3.805175E-09   3.805175E-09   3.805175E-09   3.805175E-09   3.805175E-09   3.805175E-09   3.805175E-09   3.805175E-09   3.805175E-09   3.805175E-09   3.805175E-09   3.805175E-09   3.805175E-09   3.805175E-09   3.805175E-09   3.805175E-09   3.805175E-09   3.805175E-09   3.805175E-09   3.805175E-09   3.805175E-09   3.805175E-09   3.805175E-09   3.805175E-09   3.805175E-09   3.805175E-09   3.805175E-09   3.805175E-09   3.805175E-09   3.805175E-09   3.805175E-09   3.805175E-09   3.805175E-09   3.805175E-09   3.805175E-09   3.805175E-09   3.805175E-09   3.805175E-09   3.805175E-09   3.805175E-09   3.805175E-09   3.805175E-09   3.805175E-09   3.805175E-09   3.805175E-09
   3.805175E-09   3.805175E-09   3.805175E-09   3.805175E-09   3.805175E-09   3.805175E-09   3.805175E-09   3.805175E-09   3.805175E-09   3.805175E-09   3.805175E-09   3.805175E-09   3.805175E-09   3.805175E-09   3.805175E-09   3.805175E-09   3.805175E-09   3.805175E-09   3.805175E-09   3.805175E-09   3.805175E-09   3.805175E-09   3.805175E-09   3.805175E-09   3.805175E-09   3.805175E-09   3.805175E-09   3.805175E-09   3.805175E-09   3.805175E-09   3.805175E-09   3.805175E-09   3.805175E-09   3.805175E-09   3.805175E-09   3.805175E-09   3.805175E-09   3.805175E-09   3.805175E-09   3.805175E-09   3.805175E-09   3.805175E-09   3.805175E-09   3.805175E-09   3.805175E-09   3.805175E-09   3.805175E-09   3.805175E-09   3.805175E-09   3.805175E-09   3.805175E-09   3.805175E-09   3.805175E-09   3.805175E-09   3.805175E-09   3.805175E-09   3.805175E-09   3.805175E-09   3.805175E-09   3.805175E-09   3.805175E-09   3.805175E-09   3.805175E-09   3.805175E-09   3.805175E-09   3.805175E-09   3.805175E-09   3.805175E-09   3.805175E-09   3.805175E-09   3.805175E-09   3.805175E-09   3.805175E-09   3.805175E-09   3.805175E-09   3.805175E-09   3.805175E-09   3.805175E-09   3.805175E-09   3.805175E-09   3.805175E-09   3.805175E-09   3.805175E-09   3.805175E-09   3.805175E-09   3.805175E-09   3.805175E-09   3.805175E-09   3.805175E-09   3.805175E-09   3.805175E-09   3.805175E-09   3.805175E-09   3.805175E-09   3.805175E-09   3.805175E-09   3.805175E-09   3.805175E-09   3.805175E-09   3.805175E-09   3.805175E-09   3.805175E-09   3.805175E-09   3.805175E-09   3.805175E-09   3.805175E-09   3.805175E-09   3.805175E-09
   3.805175E-09   3.805175E-09   3.805175E-09   3.805175E-09   3.805175E-09   3.805175E-09   3.805175E-09   3.805175E-09   3.805175E-09   3.805175E-09   3.805175E-09   3.805175E-09   3.805175E-09   3.805175E-09   3.805175E-09   3.805175E-09   3.805175E-09   3.805175E-09   3.805175E-09   3.805175E-09   3.805175E-09   3.805175E-09   3.805175E-09   3.805175E-09   3.805175E-09   3.805175E-09   3.805175E-09   3.805175E-09   3.805175E-09   3.805175E-09   3.805175E-09   3.805175E-09   3.805175E-09   3.805175E-09   3.805175E-09   3.805175E-09   3.805175E-09   3.805175E-09   3.805175E-09   3.805175E-09   3.805175E-09   3.805175E-09   3.805175E-09   3.805175E-09   3.805175E-09   3.805175E-09   3.805175E-09   3.805175E-09   3.805175E-09   3.805175E-09   3.805175E-09   3.805175E-09   3.805175E-09   3.805175E-09   3.805175E-09   3.805175E-09   3.805175E-09   3.805175E-09   3.805175E-09   3.805175E-09   3.805175E-09   3.805175E-09   3.805175E-09   3.805175E-09   3.805175E-09   3.805175E-09   3.805175E-09   3.805175E-09   3.805175E-09   3.805175E-09   3.805175E-09   3.805175E-09   3.805175E-09   3.805175E-09   3.805175E-09   3.805175E-09   3.805175E-09   3.805175E-09   3.805175E-09   3.805175E-09   3.805175E-09   3.805175E-09   3.805175E-09   3.805175E-09   3.805175E-09   3.805175E-09   3.805175E-09   3.805175E-09   3.805175E-09   3.805175E-09   3.805175E-09   3.805175E-09   3.805175E-09   3.805175E-09   3.805175E-09   3.805175E-09   3.805175E-09   3.805175E-09   3.805175E-09   3.805175E-09   3.805175E-09   3.805175E-09   3.805175E-09   3.805175E-09   3.805175E-09   3.805175E-09   3.805175E-09   3.805175E-09
   3.805175E-09   3.805175E-09   3.805175E-09   3.805175E-09   3.805175E-09   3.805175E-09   3.805175E-09   3.805175E-09   3.805175E-09   3.805175E-09   3.805175E-09   3.805175E-09   3.805175E-09   3.805175E-09   3.805175E-09   3.805175E-09   3.805175E-09   3.805175E-09   3.805175E-09   3.805175E-09   3.805175E-09   3.805175E-09   3.805175E-09   3.805175E-09   3.805175E-09   3.805175E-09   3.805175E-09   3.805175E-09   3.805175E-09   3.805175E-09   3.805175E-09   3.805175E-09   3.805175E-09   3.805175E-09   3.805175E-09   3.805175E-09   3.805175E-09   3.805175E-09   3.805175E-09   3.805175E-09   3.805175E-09   3.805175E-09   3.805175E-09   3.805175E-09   3.805175E-09   3.805175E-09   3.805175E-09   3.805175E-09   3.805175E-09   3.805175E-09   3.805175E-09   3.805175E-09   3.805175E-09   3.805175E-09   3.805175E-09   3.805175E-09   3.805175E-09   3.805175E-09   3.805175E-09   3.805175E-09   3.805175E-09   3.805175E-09   3.805175E-09   3.805175E-09   3.805175E-09   3.805175E-09   3.805175E-09   3.805175E-09   3.805175E-09   3.805175E-09   3.805175E-09   3.805175E-09   3.805175E-09   3.805175E-09   3.805175E-09   3.805175E-09   3.805175E-09   3.805175E-09   3.805175E-09   3.805175E-09   3.805175E-09   3.805175E-09   3.805175E-09   3.805175E-09   3.805175E-09   3.805175E-09   3.805175E-09   3.805175E-09   3.805175E-09   3.805175E-09   3.805175E-09   3.805175E-09   3.805175E-09   3.805175E-09   3.805175E-09   3.805175E-09   3.805175E-09   3.805175E-09   3.805175E-09   3.805175E-09   3.805175E-09   3.805175E-09   3.805175E-09   3.805175E-09   3.805175E-09   3.805175E-09   3.805175E-09   3.805175E-09
   3.805175E-09   3.805175E-09   3.805175E-09   3.805175E-09   3.805175E-09   3.805175E-09   3.805175E-09   3.805175E-09   3.805175E-09   3.805175E-09   3.805175E-09   3.805175E-09   3.805175E-09   3.805175E-09   3.805175E-09   3.805175E-09   3.805175E-09   3.805175E-09   3.805175E-09   3.805175E-09   3.805175E-09   3.805175E-09   3.805175E-09   3.805175E-09   3.805175E-09   3.805175E-09   3.805175E-09   3.805175E-09   3.805175E-09   3.805175E-09   3.805175E-09   3.805175E-09   3.805175E-09   3.805175E-09   3.805175E-09   3.805175E-09   3.805175E-09   3.805175E-09   3.805175E-09   3.805175E-09   3.805175E-09   3.805175E-09   3.805175E-09   3.805175E-09   3.805175E-09   3.805175E-09   3.805175E-09   3.805175E-09   3.805175E-09   3.805175E-09   3.805175E-09   3.805175E-09   3.805175E-09   3.805175E-09   3.805175E-09   3.805175E-09   3.805175E-09   3.805175E-09   3.805175E-09   3.805175E-09   3.805175E-09   3.805175E-09   3.805175E-09   3.805175E-09   3.805175E-09   3.805175E-09   3.805175E-09   3.805175E-09   3.805175E-09   3.805175E-09   3.805175E-09   3.805175E-09   3.805175E-09   3.805175E-09   3.805175E-09   3.805175E-09   3.805175E-09   3.805175E-09   3.805175E-09   3.805175E-09   3.805175E-09   3.805175E-09   3.805175E-09   3.805175E-09   3.805175E-09   3.805175E-09   3.805175E-09   3.805175E-09   3.805175E-09   3.805175E-09   3.805175E-09   3.805175E-09   3.805175E-09   3.805175E-09   3.805175E-09   3.805175E-09   3.805175E-09   3.805175E-09   3.805175E-09   3.805175E-09   3.805175E-09   3.805175E-09   3.805175E-09   3.805175E-09   3.805175E-09   3.805175E-09   3.805175E-09   3.805175E-09
   3.805175E-09   3.805175E-09   3.805175E-09   3.805175E-09   3.805175E-09   3.805175E-09   3.805175E-09   3.805175E-09   3.805175E-09   3.805175E-09   3.805175E-09   3.805175E-09   3.805175E-09   3.805175E-09   3.805175E-09   3.805175E-09   3.805175E-09   3.805175E-09   3.805175E-09   3.805175E-09   3.805175E-09   3.805175E-09   3.805175E-09   3.805175E-09   3.805175E-09   3.805175E-09   3.805175E-09   3.805175E-09   3.805175E-09   3.805175E-09   3.805175E-09   3.805175E-09   3.805175E-09   3.805175E-09   3.805175E-09   3.805175E-09   3.805175E-09   3.805175E-09   3.805175E-09   3.805175E-09   3.805175E-09   3.805175E-09   3.805175E-09   3.805175E-09   3.805175E-09   3.805175E-09   3.805175E-09   3.805175E-09   3.805175E-09   3.805175E-09   3.805175E-09   3.805175E-09   3.805175E-09   3.805175E-09   3.805175E-09   3.805175E-09   3.805175E-09   3.805175E-09   3.805175E-09   3.805175E-09   3.805175E-09   3.805175E-09   3.805175E-09   3.805175E-09   3.805175E-09   3.805175E-09   3.805175E-09   3.805175E-09   3.805175E-09   3.805175E-09   3.805175E-09   3.805175E-09   3.805175E-09   3.805175E-09   3.805175E-09   3.805175E-09   3.805175E-09   3.805175E-09   3.805175E-09   3.805175E-09   3.805175E-09   3.805175E-09   3.805175E-09   3.805175E-09   3.805175E-09   3.805175E-09   3.805175E-09   3.805175E-09   3.805175E-09   3.805175E-09   3.805175E-09   3.805175E-09   3.805175E-09   3.805175E-09   3.805175E-09   3.805175E-09   3.805175E-09   3.805175E-09   3.805175E-09   3.805175E-09   3.805175E-09   3.805175E-09   3.805175E-09   3.805175E-09   3.805175E-09   3.805175E-09   3.805175E-09   3.805175E-09
   3.805175E-09   3.805175E-09   3.805175E-09   3.805175E-09   3.805175E-09   3.805175E-09   3.805175E-09   3.805175E-09   3.805175E-09   3.805175E-09   3.805175E-09   3.805175E-09   3.805175E-09   3.805175E-09   3.805175E-09   3.805175E-09   3.805175E-09   3.805175E-09   3.805175E-09   3.805175E-09   3.805175E-09   3.805175E-09   3.805175E-09   3.805175E-09   3.805175E-09   3.805175E-09   3.805175E-09   3.805175E-09   3.805175E-09   3.805175E-09   3.805175E-09   3.805175E-09   3.805175E-09   3.805175E-09   3.805175E-09   3.805175E-09   3.805175E-09   3.805175E-09   3.805175E-09   3.805175E-09   3.805175E-09   3.805175E-09   3.805175E-09   3.805175E-09   3.805175E-09   3.805175E-09   3.805175E-09   3.805175E-09   3.805175E-09   3.805175E-09   3.805175E-09   3.805175E-09   3.805175E-09   3.805175E-09   3.805175E-09   3.805175E-09   3.805175E-09   3.805175E-09   3.805175E-09   3.805175E-09   3.805175E-09   3.805175E-09   3.805175E-09   3.805175E-09   3.805175E-09   3.805175E-09   3.805175E-09   3.805175E-09   3.805175E-09   3.805175E-09   3.805175E-09   3.805175E-09   3.805175E-09   3.805175E-09   3.805175E-09   3.805175E-09   3.805175E-09   3.805175E-09   3.805175E-09   3.805175E-09   3.805175E-09   3.805175E-09   3.805175E-09   3.805175E-09   3.805175E-09   3.805175E-09   3.805175E-09   3.805175E-09   3.805175E-09   3.805175E-09   3.805175E-09   3.805175E-09   3.805175E-09   3.805175E-09   3.805175E-09   3.805175E-09   3.805175E-09   3.805175E-09   3.805175E-09   3.805175E-09   3.805175E-09   3.805175E-09   3.805175E-09   3.805175E-09   3.805175E-09   3.805175E-09   3.805175E-09   3.805175E-09
   3.805175E-09   3.805175E-09   3.805175E-09   3.805175E-09   3.805175E-09   3.805175E-09   3.805175E-09   3.805175E-09   3.805175E-09   3.805175E-09   3.805175E-09   3.805175E-09   3.805175E-09   3.805175E-09   3.805175E-09   3.805175E-09   3.805175E-09   3.805175E-09   3.805175E-09   3.805175E-09   3.805175E-09   3.805175E-09   3.805175E-09   3.805175E-09   3.805175E-09   3.805175E-09   3.805175E-09   3.805175E-09   3.805175E-09   3.805175E-09   3.805175E-09   3.805175E-09   3.805175E-09   3.805175E-09   3.805175E-09   3.805175E-09   3.805175E-09   3.805175E-09   3.805175E-09   3.805175E-09   3.805175E-09   3.805175E-09   3.805175E-09   3.805175E-09   3.805175E-09   3.805175E-09   3.805175E-09   3.805175E-09   3.805175E-09   3.805175E-09   3.805175E-09   3.805175E-09   3.805175E-09   3.805175E-09   3.805175E-09   3.805175E-09   3.805175E-09   3.805175E-09   3.805175E-09   3.805175E-09   3.805175E-09   3.805175E-09   3.805175E-09   3.805175E-09   3.805175E-09   3.805175E-09   3.805175E-09   3.805175E-09   3.805175E-09   3.805175E-09   3.805175E-09   3.805175E-09   3.805175E-09   3.805175E-09   3.805175E-09   3.805175E-09   3.805175E-09   3.805175E-09   3.805175E-09   3.805175E-09   3.805175E-09   3.805175E-09   3.805175E-09   3.805175E-09   3.805175E-09   3.805175E-09   3.805175E-09   3.805175E-09   3.805175E-09   3.805175E-09   3.805175E-09   3.805175E-09   3.805175E-09   3.805175E-09   3.805175E-09   3.805175E-09   3.805175E-09   3.805175E-09   3.805175E-09   3.805175E-09   3.805175E-09   3.805175E-09   3.805175E-09   3.805175E-09   3.805175E-09   3.805175E-09   3.805175E-09   3.805175E-09
   3.805175E-09   3.805175E-09   3.805175E-09   3.805175E-09   3.805175E-09   3.805175E-09   3.805175E-09   3.805175E-09   3.805175E-09   3.805175E-09   3.805175E-09   3.805175E-09   3.805175E-09   3.805175E-09   3.805175E-09   3.805175E-09   3.805175E-09   3.805175E-09   3.805175E-09   3.805175E-09   3.805175E-09   3.805175E-09   3.805175E-09   3.805175E-09   3.805175E-09   3.805175E-09   3.805175E-09   3.805175E-09   3.805175E-09   3.805175E-09   3.805175E-09   3.805175E-09   3.805175E-09   3.805175E-09   3.805175E-09   3.805175E-09   3.805175E-09   3.805175E-09   3.805175E-09   3.805175E-09   3.805175E-09   3.805175E-09   3.805175E-09   3.805175E-09   3.805175E-09   3.805175E-09   3.805175E-09   3.805175E-09   3.805175E-09   3.805175E-09   3.805175E-09   3.805175E-09   3.805175E-09   3.805175E-09   3.805175E-09   3.805175E-09   3.805175E-09   3.805175E-09   3.805175E-09   3.805175E-09   3.805175E-09   3.805175E-09   3.805175E-09   3.805175E-09   3.805175E-09   3.805175E-09   3.805175E-09   3.805175E-09   3.805175E-09   3.805175E-09   3.805175E-09   3.805175E-09   3.805175E-09   3.805175E-09   3.805175E-09   3.805175E-09   3.805175E-09   3.805175E-09   3.805175E-09   3.805175E-09   3.805175E-09   3.805175E-09   3.805175E-09   3.805175E-09   3.805175E-09   3.805175E-09   3.805175E-09   3.805175E-09   3.805175E-09   3.805175E-09   3.805175E-09   3.805175E-09   3.805175E-09   3.805175E-09   3.805175E-09   3.805175E-09   3.805175E-09   3.805175E-09   3.805175E-09   3.805175E-09   3.805175E-09   3.805175E-09   3.805175E-09   3.805175E-09   3.805175E-09   3.805175E-09   3.805175E-09   3.805175E-09
   3.805175E-09   3.805175E-09   3.805175E-09   3.805175E-09   3.805175E-09   3.805175E-09   3.805175E-09   3.805175E-09   3.805175E-09   3.805175E-09   3.805175E-09   3.805175E-09   3.805175E-09   3.805175E-09   3.805175E-09   3.805175E-09   3.805175E-09   3.805175E-09   3.805175E-09   3.805175E-09   3.805175E-09   3.805175E-09   3.805175E-09   3.805175E-09   3.805175E-09   3.805175E-09   3.805175E-09   3.805175E-09   3.805175E-09   3.805175E-09   3.805175E-09   3.805175E-09   3.805175E-09   3.805175E-09   3.805175E-09   3.805175E-09   3.805175E-09   3.805175E-09   3.805175E-09   3.805175E-09   3.805175E-09   3.805175E-09   3.805175E-09   3.805175E-09   3.805175E-09   3.805175E-09   3.805175E-09   3.805175E-09   3.805175E-09   3.805175E-09   3.805175E-09   3.805175E-09   3.805175E-09   3.805175E-09   3.805175E-09   3.805175E-09   3.805175E-09   3.805175E-09   3.805175E-09   3.805175E-09   3.805175E-09   3.805175E-09   3.805175E-09   3.805175E-09   3.805175E-09   3.805175E-09   3.805175E-09   3.805175E-09   3.805175E-09   3.805175E-09   3.805175E-09   3.805175E-09   3.805175E-09   3.805175E-09   3.805175E-09   3.805175E-09   3.805175E-09   3.805175E-09   3.805175E-09   3.805175E-09   3.805175E-09   3.805175E-09   3.805175E-09   3.805175E-09   3.805175E-09   3.805175E-09   3.805175E-09   3.805175E-09   3.805175E-09   3.805175E-09   3.805175E-09   3.805175E-09   3.805175E-09   3.805175E-09   3.805175E-09   3.805175E-09   3.805175E-09   3.805175E-09   3.805175E-09   3.805175E-09   3.805175E-09   3.805175E-09   3.805175E-09   3.805175E-09   3.805175E-09   3.805175E-09   3.805175E-09   3.805175E-09
   3.805175E-09   3.805175E-09   3.805175E-09   3.805175E-09   3.805175E-09   3.805175E-09   3.805175E-09   3.805175E-09   3.805175E-09   3.805175E-09   3.805175E-09   3.805175E-09   3.805175E-09   3.805175E-09   3.805175E-09   3.805175E-09   3.805175E-09   3.805175E-09   3.805175E-09   3.805175E-09   3.805175E-09   3.805175E-09   3.805175E-09   3.805175E-09   3.805175E-09   3.805175E-09   3.805175E-09   3.805175E-09   3.805175E-09   3.805175E-09   3.805175E-09   3.805175E-09   3.805175E-09   3.805175E-09   3.805175E-09   3.805175E-09   3.805175E-09   3.805175E-09   3.805175E-09   3.805175E-09   3.805175E-09   3.805175E-09   3.805175E-09   3.805175E-09   3.805175E-09   3.805175E-09   3.805175E-09   3.805175E-09   3.805175E-09   3.805175E-09   3.805175E-09   3.805175E-09   3.805175E-09   3.805175E-09   3.805175E-09   3.805175E-09   3.805175E-09   3.805175E-09   3.805175E-09   3.805175E-09   3.805175E-09   3.805175E-09   3.805175E-09   3.805175E-09   3.805175E-09   3.805175E-09   3.805175E-09   3.805175E-09   3.805175E-09   3.805175E-09   3.805175E-09   3.805175E-09   3.805175E-09   3.805175E-09   3.805175E-09   3.805175E-09   3.805175E-09   3.805175E-09   3.805175E-09   3.805175E-09   3.805175E-09   3.805175E-09   3.805175E-09   3.805175E-09   3.805175E-09   3.805175E-09   3.805175E-09   3.805175E-09   3.805175E-09   3.805175E-09   3.805175E-09   3.805175E-09   3.805175E-09   3.805175E-09   3.805175E-09   3.805175E-09   3.805175E-09   3.805175E-09   3.805175E-09   3.805175E-09   3.805175E-09   3.805175E-09   3.805175E-09   3.805175E-09   3.805175E-09   3.805175E-09   3.805175E-09   3.805175E-09
   3.805175E-09   3.805175E-09   3.805175E-09   3.805175E-09   3.805175E-09   3.805175E-09   3.805175E-09   3.805175E-09   3.805175E-09   3.805175E-09   3.805175E-09   3.805175E-09   3.805175E-09   3.805175E-09   3.805175E-09   3.805175E-09   3.805175E-09   3.805175E-09   3.805175E-09   3.805175E-09   3.805175E-09   3.805175E-09   3.805175E-09   3.805175E-09   3.805175E-09   3.805175E-09   3.805175E-09   3.805175E-09   3.805175E-09   3.805175E-09   3.805175E-09   3.805175E-09   3.805175E-09   3.805175E-09   3.805175E-09   3.805175E-09   3.805175E-09   3.805175E-09   3.805175E-09   3.805175E-09   3.805175E-09   3.805175E-09   3.805175E-09   3.805175E-09   3.805175E-09   3.805175E-09   3.805175E-09   3.805175E-09   3.805175E-09   3.805175E-09   3.805175E-09   3.805175E-09   3.805175E-09   3.805175E-09   3.805175E-09   3.805175E-09   3.805175E-09   3.805175E-09   3.805175E-09   3.805175E-09   3.805175E-09   3.805175E-09   3.805175E-09   3.805175E-09   3.805175E-09   3.805175E-09   3.805175E-09   3.805175E-09   3.805175E-09   3.805175E-09   3.805175E-09   3.805175E-09   3.805175E-09   3.805175E-09   3.805175E-09   3.805175E-09   3.805175E-09   3.805175E-09   3.805175E-09   3.805175E-09   3.805175E-09   3.805175E-09   3.805175E-09   3.805175E-09   3.805175E-09   3.805175E-09   3.805175E-09   3.805175E-09   3.805175E-09   3.805175E-09   3.805175E-09   3.805175E-09   3.805175E-09   3.805175E-09   3.805175E-09   3.805175E-09   3.805175E-09   3.805175E-09   3.805175E-09   3.805175E-09   3.805175E-09   3.805175E-09   3.805175E-09   3.805175E-09   3.805175E-09   3.805175E-09   3.805175E-09   3.805175E-09